
     RDKit          3D

 41 43  0  0  0  0  0  0  0  0999 V2000
  -15.2750  -21.6770   -0.3260 C   0  0  0  0  0  0  0  0  0  0  0  0
  -15.8120  -20.3300   -0.7910 C   0  0  0  0  0  0  0  0  0  0  0  0
  -15.8050  -20.1790   -2.3140 C   0  0  0  0  0  0  0  0  0  0  0  0
  -16.2580  -18.8470   -2.7260 N   0  0  0  0  0  0  0  0  0  0  0  0
  -16.4000  -18.7200   -4.1840 C   0  0  0  0  0  0  0  0  0  0  0  0
  -15.1650  -19.0510   -4.9960 C   0  0  0  0  0  0  0  0  0  0  0  0
  -14.1030  -19.2850   -4.4400 O   0  0  0  0  0  0  0  0  0  0  0  0
  -15.2870  -19.0890   -6.3550 N   0  0  0  0  0  0  0  0  0  0  0  0
  -16.5720  -18.8130   -7.0510 C   0  0  0  0  0  0  0  0  0  0  0  0
  -16.2970  -19.1500   -8.5270 C   0  0  0  0  0  0  0  0  0  0  0  0
  -14.8230  -19.4340   -8.5700 C   0  0  0  0  0  0  0  0  0  0  0  0
  -14.0140  -19.7170   -9.6600 C   0  0  0  0  0  0  0  0  0  0  0  0
  -12.6630  -19.9540   -9.4740 C   0  0  0  0  0  0  0  0  0  0  0  0
  -12.1200  -19.9090   -8.2040 C   0  0  0  0  0  0  0  0  0  0  0  0
  -12.9230  -19.6300   -7.1140 C   0  0  0  0  0  0  0  0  0  0  0  0
  -14.2730  -19.3910   -7.2990 C   0  0  0  0  0  0  0  0  0  0  0  0
  -15.3740  -17.8230   -2.1670 C   0  0  0  0  0  0  0  0  0  0  0  0
  -15.3920  -17.8780   -0.6500 C   0  0  0  0  0  0  0  0  0  0  0  0
  -14.9810  -19.2300   -0.1920 N   0  0  0  0  0  0  0  0  0  0  0  0
  -10.4300  -20.2050   -7.9790 Cl  0  0  0  0  0  0  0  0  0  0  0  0
  -15.3840  -22.3400   -1.0390 H   0  0  0  0  0  0  0  0  0  0  0  0
  -15.7690  -21.9740    0.4660 H   0  0  0  0  0  0  0  0  0  0  0  0
  -14.3260  -21.5970   -0.1010 H   0  0  0  0  0  0  0  0  0  0  0  0
  -16.7260  -20.2000   -0.4460 H   0  0  0  0  0  0  0  0  0  0  0  0
  -16.3920  -20.8540   -2.7110 H   0  0  0  0  0  0  0  0  0  0  0  0
  -14.9030  -20.3310   -2.6470 H   0  0  0  0  0  0  0  0  0  0  0  0
  -16.6660  -17.8040   -4.3950 H   0  0  0  0  0  0  0  0  0  0  0  0
  -17.1180  -19.3080   -4.4770 H   0  0  0  0  0  0  0  0  0  0  0  0
  -16.8270  -17.8740   -6.9400 H   0  0  0  0  0  0  0  0  0  0  0  0
  -17.2800  -19.3760   -6.6900 H   0  0  0  0  0  0  0  0  0  0  0  0
  -16.5230  -18.3950   -9.1080 H   0  0  0  0  0  0  0  0  0  0  0  0
  -16.8110  -19.9310   -8.8130 H   0  0  0  0  0  0  0  0  0  0  0  0
  -14.3870  -19.7470  -10.5300 H   0  0  0  0  0  0  0  0  0  0  0  0
  -12.1100  -20.1460  -10.2180 H   0  0  0  0  0  0  0  0  0  0  0  0
  -12.5530  -19.5980   -6.2460 H   0  0  0  0  0  0  0  0  0  0  0  0
  -15.6680  -16.9420   -2.4670 H   0  0  0  0  0  0  0  0  0  0  0  0
  -14.4640  -17.9690   -2.4880 H   0  0  0  0  0  0  0  0  0  0  0  0
  -16.2920  -17.6900   -0.3160 H   0  0  0  0  0  0  0  0  0  0  0  0
  -14.7730  -17.2200   -0.2810 H   0  0  0  0  0  0  0  0  0  0  0  0
  -15.0670  -19.2520    0.8140 H   0  0  0  0  0  0  0  0  0  0  0  0
  -14.0140  -19.3790   -0.4410 H   0  0  0  0  0  0  0  0  0  0  0  0
  1  2  1  0
  2  3  1  0
  2 19  1  0
  3  4  1  0
  4  5  1  0
  4 17  1  0
  5  6  1  0
  6  7  2  0
  6  8  1  0
  8  9  1  0
  8 16  1  0
  9 10  1  0
 10 11  1  0
 11 12  1  0
 11 16  2  0
 12 13  2  0
 13 14  1  0
 14 15  2  0
 14 20  1  0
 15 16  1  0
 17 18  1  0
 18 19  1  0
  1 21  1  0
  1 22  1  0
  1 23  1  0
  2 24  1  0
  3 25  1  0
  3 26  1  0
  5 27  1  0
  5 28  1  0
  9 29  1  0
  9 30  1  0
 10 31  1  0
 10 32  1  0
 12 33  1  0
 13 34  1  0
 15 35  1  0
 17 36  1  0
 17 37  1  0
 18 38  1  0
 18 39  1  0
 19 40  1  0
 19 41  1  0
M  CHG  1  19   1
M  END
