
     RDKit          3D

 42 44  0  0  0  0  0  0  0  0999 V2000
  -15.6150  -21.5350    0.0860 C   0  0  0  0  0  0  0  0  0  0  0  0
  -15.9480  -20.2140   -0.6040 C   0  0  0  0  0  0  0  0  0  0  0  0
  -15.7940  -20.3210   -2.1270 C   0  0  0  0  0  0  0  0  0  0  0  0
  -16.0730  -19.0250   -2.7500 N   0  0  0  0  0  0  0  0  0  0  0  0
  -16.2670  -19.0470   -4.1790 C   0  0  0  0  0  0  0  0  0  0  0  0
  -15.0260  -19.3640   -5.0450 C   0  0  0  0  0  0  0  0  0  0  0  0
  -13.9470  -19.6640   -4.5440 O   0  0  0  0  0  0  0  0  0  0  0  0
  -15.2180  -19.2880   -6.4070 N   0  0  0  0  0  0  0  0  0  0  0  0
  -16.4830  -18.8590   -7.0510 C   0  0  0  0  0  0  0  0  0  0  0  0
  -16.2840  -19.1490   -8.5580 C   0  0  0  0  0  0  0  0  0  0  0  0
  -14.7910  -19.3430   -8.6740 C   0  0  0  0  0  0  0  0  0  0  0  0
  -13.9810  -19.4570   -9.7950 C   0  0  0  0  0  0  0  0  0  0  0  0
  -12.6120  -19.6890   -9.6470 C   0  0  0  0  0  0  0  0  0  0  0  0
  -12.0470  -19.8220   -8.3660 C   0  0  0  0  0  0  0  0  0  0  0  0
  -12.8600  -19.7070   -7.2220 C   0  0  0  0  0  0  0  0  0  0  0  0
  -14.2190  -19.4640   -7.3990 C   0  0  0  0  0  0  0  0  0  0  0  0
  -15.1900  -17.9690   -2.2500 C   0  0  0  0  0  0  0  0  0  0  0  0
  -15.3460  -17.8650   -0.7330 C   0  0  0  0  0  0  0  0  0  0  0  0
  -15.0400  -19.1630   -0.1300 N   0  0  0  0  0  0  0  0  0  0  0  0
  -10.6890  -20.1200   -8.2210 N   0  0  0  0  0  0  0  0  0  0  0  0
  -16.2810  -22.3350   -0.2570 H   0  0  0  0  0  0  0  0  0  0  0  0
  -15.7300  -21.4500    1.1740 H   0  0  0  0  0  0  0  0  0  0  0  0
  -14.5800  -21.8270   -0.1230 H   0  0  0  0  0  0  0  0  0  0  0  0
  -17.0060  -19.9540   -0.4020 H   0  0  0  0  0  0  0  0  0  0  0  0
  -16.5200  -21.0490   -2.5120 H   0  0  0  0  0  0  0  0  0  0  0  0
  -14.7840  -20.6890   -2.3630 H   0  0  0  0  0  0  0  0  0  0  0  0
  -16.6700  -18.0720   -4.4910 H   0  0  0  0  0  0  0  0  0  0  0  0
  -17.0500  -19.7850   -4.4110 H   0  0  0  0  0  0  0  0  0  0  0  0
  -16.6430  -17.7870   -6.8750 H   0  0  0  0  0  0  0  0  0  0  0  0
  -17.3340  -19.4000   -6.6310 H   0  0  0  0  0  0  0  0  0  0  0  0
  -16.6690  -18.3290   -9.1740 H   0  0  0  0  0  0  0  0  0  0  0  0
  -16.8290  -20.0550   -8.8550 H   0  0  0  0  0  0  0  0  0  0  0  0
  -14.4050  -19.3640  -10.7920 H   0  0  0  0  0  0  0  0  0  0  0  0
  -11.9780  -19.7810  -10.5250 H   0  0  0  0  0  0  0  0  0  0  0  0
  -12.4470  -19.8060   -6.2280 H   0  0  0  0  0  0  0  0  0  0  0  0
  -15.4890  -17.0200   -2.7140 H   0  0  0  0  0  0  0  0  0  0  0  0
  -14.1350  -18.1560   -2.4980 H   0  0  0  0  0  0  0  0  0  0  0  0
  -16.3730  -17.5190   -0.5080 H   0  0  0  0  0  0  0  0  0  0  0  0
  -14.6440  -17.1190   -0.3420 H   0  0  0  0  0  0  0  0  0  0  0  0
  -15.1040  -19.0940    0.8840 H   0  0  0  0  0  0  0  0  0  0  0  0
  -10.2950  -19.8730   -7.3210 H   0  0  0  0  0  0  0  0  0  0  0  0
  -10.1000  -19.8050   -8.9810 H   0  0  0  0  0  0  0  0  0  0  0  0
  1  2  1  0
  2  3  1  0
  2 19  1  0
  3  4  1  0
  4  5  1  0
  4 17  1  0
  5  6  1  0
  6  7  2  0
  6  8  1  0
  8  9  1  0
  8 16  1  0
  9 10  1  0
 10 11  1  0
 11 12  1  0
 11 16  2  0
 12 13  2  0
 13 14  1  0
 14 15  2  0
 14 20  1  0
 15 16  1  0
 17 18  1  0
 18 19  1  0
  1 21  1  0
  1 22  1  0
  1 23  1  0
  2 24  1  0
  3 25  1  0
  3 26  1  0
  5 27  1  0
  5 28  1  0
  9 29  1  0
  9 30  1  0
 10 31  1  0
 10 32  1  0
 12 33  1  0
 13 34  1  0
 15 35  1  0
 17 36  1  0
 17 37  1  0
 18 38  1  0
 18 39  1  0
 19 40  1  0
 20 41  1  0
 20 42  1  0
M  END
